-------------------------------------------------------
          Amber 18 SANDER                              2018
          -------------------------------------------------------

  [-O]verwriting output

File Assignments:

 Here is the input file:

lachele@pop-os:~/GLYCAM_Dev_Env/V_2/Web_Data/TESTS/build-minimize$ cat save.mol.minin
Gas Phase MD with Sander, SHAKE and Restraints
 &cntrl
  imin = 0, irest=0, ntx=1,
  ntt=3, temp0=300.0, gamma_ln=5.0, ntp=0,
  dt = 0.002, ntc=2, ntf=2, nstlim=500000,
  ntb = 0, cut = 20.0, ntmin = 1, nscm = 100, dielc = 1 ,
  ntxo = 1, ntwr = 1, ntwx=1000, ntpr=500,
  ntr=1, restraint_wt=2.0,
  restraintmask='@CA&:1-17,23-32,42,46,48,50-112,115-134,142-156,173-175,179,188-191'
 &end

--------------------------------------------------------------------------------
   1.  RESOURCE   USE:
--------------------------------------------------------------------------------

 NATOM  =    2925 NTYPES =      21 NBONH =    1444 MBONA  =    1515
 NTHETH =    3266 MTHETA =    2055 NPHIH =    6723 MPHIA  =    6524
 NHPARM =       0 NPARM  =       0 NNB   =   16070 NRES   =     192
 NBONA  =    1515 NTHETA =    2055 NPHIA =    6524 NUMBND =      75
 NUMANG =     171 NPTRA  =     210 NATYP =      41 NPHB   =       0
 IFBOX  =       0 NMXRS  =      34 IFCAP =       0 NEXTRA =       0
 NCOPY  =       0

--------------------------------------------------------------------------------
   2.  CONTROL  DATA  FOR  THE  RUN
--------------------------------------------------------------------------------

default_name

General flags:
     imin    =       0, nmropt  =       0

Nature and format of input:
     ntx     =       1, irest   =       0, ntrx    =       1

Nature and format of output:
     ntxo    =       1, ntpr    =     500, ntrx    =       1, ntwr    =       1
     iwrap   =       0, ntwx    =    1000, ntwv    =       0, ntwe    =       0
     ioutfm  =       1, ntwprt  =       0, idecomp =       0, rbornstat=      0

Potential function:
     ntf     =       2, ntb     =       0, igb     =       0, nsnb    =      25
     ipol    =       0, gbsa    =       0, iesp    =       0
     dielc   =   1.00000, cut     =  20.00000, intdiel =   1.00000

Frozen or restrained atoms:
     ibelly  =       0, ntr     =       1
     restraint_wt =   2.00000

Molecular dynamics:
     nstlim  =    500000, nscm    =         0, nrespa  =         1
     t       =   0.00000, dt      =   0.00200, vlimit  =  20.00000

Langevin dynamics temperature regulation:
     ig      =   71277
     temp0   = 300.00000, tempi   =   0.00000, gamma_ln=   5.00000

SHAKE:
     ntc     =       2, jfastw  =       0
     tol     =   0.00001

    LOADING THE CONSTRAINED ATOMS AS GROUPS

   5.  REFERENCE ATOM COORDINATES

  defa
     Mask @CA&:1-17,23-32,42,46,48,50-112,115-134,142-156,173-175,179,188-191; matches   136 atoms

--------------------------------------------------------------------------------
   3.  ATOMIC COORDINATES AND VELOCITIES
--------------------------------------------------------------------------------

defa
 begin time read from input coords =     0.000 ps

 Number of triangulated 3-point waters found:        0

     Sum of charges from parm topology file =   0.00000189
     Forcing neutrality...

--------------------------------------------------------------------------------
   4.  RESULTS
 NSTEP =        0   TIME(PS) =       0.000  TEMP(K) =     0.00  PRESS =     0.0
 Etot   =     -4327.2142  EKtot   =         0.0000  EPtot      =     -4327.2142
 BOND   =        77.1830  ANGLE   =       387.7206  DIHED      =      2213.5434
 1-4 NB =       614.2359  1-4 EEL =      8075.7607  VDWAALS    =     -1566.3285
 EELEC  =    -14129.3294  EHBOND  =         0.0000  RESTRAINT  =         0.0000
 ------------------------------------------------------------------------------

      A V E R A G E S   O V E R  500000 S T E P S

 NSTEP =   500000   TIME(PS) =    1000.000  TEMP(K) =   300.04  PRESS =     0.0
 Etot   =      -580.5640  EKtot   =      2185.4763  EPtot      =     -2766.0403
 BOND   =       570.0605  ANGLE   =      1567.4986  DIHED      =      2516.7181
 1-4 NB =       676.4464  1-4 EEL =      7935.5525  VDWAALS    =     -1453.0723
 EELEC  =    -14659.9813  EHBOND  =         0.0000  RESTRAINT  =        80.7372
 EAMBER (non-restraint)  =     -2846.7775
 ------------------------------------------------------------------------------

      R M S  F L U C T U A T I O N S

 NSTEP =   500000   TIME(PS) =    1000.000  TEMP(K) =     5.77  PRESS =     0.0
 Etot   =       312.4983  EKtot   =        42.0085  EPtot      =       308.4964
 BOND   =        20.7375  ANGLE   =        32.7253  DIHED      =        18.7185
 1-4 NB =        10.9625  1-4 EEL =        31.6978  VDWAALS    =        18.4366
 EELEC  =       308.5742  EHBOND  =         0.0000  RESTRAINT  =         6.7884
 EAMBER (non-restraint)  =       301.7080
 ------------------------------------------------------------------------------
