-------------------------------------------------------
          Amber 18 SANDER                              2018
          -------------------------------------------------------

  [-O]verwriting output

File Assignments:

 Here is the input file:

Gas Phase MD with Sander, SHAKE and Restraints
 &cntrl
  imin = 0, irest=0, ntx=1,
  ntt=3, temp0=300.0, gamma_ln=5.0, ntp=0, ig=-1,
  dt = 0.002, ntc=2, ntf=2, nstlim=500000,
  ntb = 0, cut = 20.0, ntmin = 1, nscm = 100, dielc = 1 ,
  ntxo = 1, ntwr = 1, ntwx=1000, ntpr=500,
  ntr=1,
 &end
Lightly restrain carbon-alpha in the binding site
0.5
FIND
CA * * *
SEARCH
RES 18 22 33 41 43 45 47 47 49 49 113 114 135 141 157 172 176 178 180 187
END
END
Restrain carbon-alpha in NEAR atoms
2.0
FIND
CA * * *
SEARCH
RES 12 17 23 27 31 32 42 42 46 46 48 48 50 56 60 62 77 84 98 103 107 112 115 118 121 134 142 144 154 156 173 175 179 179 188 190
END
END
Restrain all FAR atoms
2.0
RES 1 11 28 30 57 59 63 76 85 97 104 106 119 120 145 153 191 191
END
END

--------------------------------------------------------------------------------
   1.  RESOURCE   USE:
--------------------------------------------------------------------------------

 NATOM  =    2925 NTYPES =      21 NBONH =    1444 MBONA  =    1515
 NTHETH =    3266 MTHETA =    2055 NPHIH =    6723 MPHIA  =    6524
 NHPARM =       0 NPARM  =       0 NNB   =   16070 NRES   =     192
 NBONA  =    1515 NTHETA =    2055 NPHIA =    6524 NUMBND =      75
 NUMANG =     171 NPTRA  =     210 NATYP =      41 NPHB   =       0
 IFBOX  =       0 NMXRS  =      34 IFCAP =       0 NEXTRA =       0
 NCOPY  =       0

Note: ig = -1. Setting random seed to   753633 based on wallclock time in microseconds
      and disabling the synchronization of random numbers between tasks
      to improve performance.

--------------------------------------------------------------------------------
   2.  CONTROL  DATA  FOR  THE  RUN
--------------------------------------------------------------------------------

default_name

General flags:
     imin    =       0, nmropt  =       0

Nature and format of input:
     ntx     =       1, irest   =       0, ntrx    =       1

Nature and format of output:
     ntxo    =       1, ntpr    =     500, ntrx    =       1, ntwr    =       1
     iwrap   =       0, ntwx    =    1000, ntwv    =       0, ntwe    =       0
     ioutfm  =       1, ntwprt  =       0, idecomp =       0, rbornstat=      0

Potential function:
     ntf     =       2, ntb     =       0, igb     =       0, nsnb    =      25
     ipol    =       0, gbsa    =       0, iesp    =       0
     dielc   =   1.00000, cut     =  20.00000, intdiel =   1.00000

Frozen or restrained atoms:
     ibelly  =       0, ntr     =       1
     restraint_wt =   0.00000

Molecular dynamics:
     nstlim  =    500000, nscm    =         0, nrespa  =         1
     t       =   0.00000, dt      =   0.00200, vlimit  =  20.00000

Langevin dynamics temperature regulation:
     ig      =  753633
     temp0   = 300.00000, tempi   =   0.00000, gamma_ln=   5.00000

SHAKE:
     ntc     =       2, jfastw  =       0
     tol     =   0.00001

    LOADING THE CONSTRAINED ATOMS AS GROUPS

   5.  REFERENCE ATOM COORDINATES

  defa
    ----- READING GROUP     1; TITLE:
 Lightly restrain carbon-alpha in the binding site

     GROUP    1 HAS HARMONIC CONSTRAINTS     0.50000
      ALL ATOMS THAT MEET 1 OF THE FOLLOWING SPECIFICATIONS WILL BE INCLUDED IN GROUP BELOW

      GRAPH NAME  = CA    SYMBOL  = *     TREE SYMBOL  = *     RESIDUE TYPE  = *

 GRP    1 RES   18 TO    22
 GRP    1 RES   33 TO    41
 GRP    1 RES   43 TO    45
 GRP    1 RES   47 TO    47
 GRP    1 RES   49 TO    49
 GRP    1 RES  113 TO   114
 GRP    1 RES  135 TO   141
 GRP    1 RES  157 TO   172
 GRP    1 RES  176 TO   178
 GRP    1 RES  180 TO   187
      Number of atoms in this group  =    55
    ----- END OF GROUP READ -----

--------------------------------------------------------------------------------
   3.  ATOMIC COORDINATES AND VELOCITIES
--------------------------------------------------------------------------------

defa
 begin time read from input coords =     0.000 ps

 Number of triangulated 3-point waters found:        0

     Sum of charges from parm topology file =   0.00000189
     Forcing neutrality...

--------------------------------------------------------------------------------
   4.  RESULTS
 NSTEP =        0   TIME(PS) =       0.000  TEMP(K) =     0.00  PRESS =     0.0
 Etot   =     -4438.3405  EKtot   =         0.0000  EPtot      =     -4438.3405
 BOND   =        88.2219  ANGLE   =       437.0717  DIHED      =      2199.5735
 1-4 NB =       607.8592  1-4 EEL =      7973.9805  VDWAALS    =     -1561.5397
 EELEC  =    -14183.5076  EHBOND  =         0.0000  RESTRAINT  =         0.0000
 ------------------------------------------------------------------------------

      A V E R A G E S   O V E R  500000 S T E P S

 NSTEP =   500000   TIME(PS) =    1000.000  TEMP(K) =   299.94  PRESS =     0.0
 Etot   =      -570.7720  EKtot   =      2184.7892  EPtot      =     -2755.5612
 BOND   =       574.9541  ANGLE   =      1576.2569  DIHED      =      2497.5258
 1-4 NB =       676.7966  1-4 EEL =      7866.3860  VDWAALS    =     -1457.6912
 EELEC  =    -14510.8818  EHBOND  =         0.0000  RESTRAINT  =        21.0923
 EAMBER (non-restraint)  =     -2776.6535
 ------------------------------------------------------------------------------

      R M S  F L U C T U A T I O N S

 NSTEP =   500000   TIME(PS) =    1000.000  TEMP(K) =     5.81  PRESS =     0.0
 Etot   =       317.6924  EKtot   =        42.2969  EPtot      =       313.8445
 BOND   =        20.9355  ANGLE   =        32.9479  DIHED      =        18.6851
 1-4 NB =        11.4247  1-4 EEL =        33.8067  VDWAALS    =        19.0502
 EELEC  =       312.1353  EHBOND  =         0.0000  RESTRAINT  =         3.2013
 EAMBER (non-restraint)  =       310.6432
 ------------------------------------------------------------------------------
